  102
 
C       1.417367    0.020676   33.813545
C       2.857003    0.020448   33.800585
C       3.578306    1.267400   33.799744
C       5.018697    1.267255   33.791632
C       3.578422   -1.226634   33.798389
C       5.018891   -1.226869   33.790486
C       5.738588    0.020137   33.785467
C       7.179386    0.020026   33.787461
C       5.739340    2.514008   33.797996
C       7.179770    2.514692   33.796228
C       7.899319    1.266751   33.793175
C       9.339702    1.266444   33.809570
C      10.057684    0.019722   33.823643
C      11.499822    0.019489   33.865621
C       7.899512   -1.226828   33.792022
C       9.339817   -1.226851   33.808358
C       7.180122   -2.474645   33.793803
C       5.739684   -2.473782   33.795648
C       7.900035    3.761263   33.806025
C       9.341445    3.760519   33.814569
C      10.060895    2.513686   33.822016
C      11.501316    2.513024   33.856517
C      12.219247    1.264096   33.889705
C      13.660321    1.257349   33.989184
C      14.358977    0.019016   34.087396
C      15.826085    0.018975   34.497069
C      13.660456   -1.218902   33.988404
C      12.219395   -1.225210   33.888867
C      11.501693   -2.473968   33.854003
C      10.061290   -2.474170   33.819277
C       9.341966   -3.720879   33.809940
C       7.900524   -3.721348   33.801742
C      10.061984    5.008119   33.823282
C      11.502757    5.006072   33.841609
C      12.221602    3.758749   33.870313
C      13.668089    3.753753   33.910057
C      14.383065    2.516346   33.988297
C      15.835187    2.513247   33.987811
C      16.559068    1.289349   34.085910
C      17.980573    1.274803   33.981875
C      18.710054    0.018875   33.978303
C      20.138758    0.018690   33.894946
C      17.981098   -1.236966   33.981453
C      16.559670   -1.251042   34.085094
C      15.835901   -2.474634   33.984550
C      14.383784   -2.477889   33.985369
C      13.668836   -3.715007   33.905100
C      12.222367   -3.719696   33.865689
C      11.503623   -4.966799   33.834928
C      10.062851   -4.968482   33.816653
C      12.221986    6.256694   33.839639
C      13.665214    6.254968   33.839560
C      14.385974    5.008850   33.868413
C      15.825138    5.009991   33.851335
C      16.548976    3.763954   33.884367
C      17.986963    3.764304   33.855947
C      18.705977    2.519162   33.878414
C      20.146938    2.515804   33.840835
C      20.865994    1.268947   33.852905
C      22.305175    1.267409   33.820516
C      23.028374    0.018597   33.816729
C      24.467079    0.018538   33.803949
C      22.305470   -1.230206   33.819222
C      20.866291   -1.231635   33.851845
C      20.147547   -2.478399   33.838325
C      18.706600   -2.481393   33.876146
C      17.987829   -3.726308   33.851142
C      16.549812   -3.725380   33.879014
C      15.826128   -4.971273   33.844171
C      14.387046   -4.970112   33.861400
C      13.666445   -6.216040   33.831308
C      12.223192   -6.217479   33.831314
C      14.383497    7.503983   33.818471
C      15.824002    7.504792   33.805605
C      16.544631    6.258225   33.812884
C      17.985890    6.258477   33.797074
C      18.707425    5.013386   33.811262
C      20.146407    5.011554   33.793949
C      20.867204    3.763340   33.804880
C      22.306961    3.762942   33.793208
C      23.026949    2.514964   33.799996
C      24.469192    2.514900   33.795535
C      25.188572    1.267929   33.800359
C      26.630915    1.268459   33.801225
C      27.351633    0.018258   33.797206
C      28.791151    0.018096   33.788192
C      26.631073   -1.231807   33.800214
C      25.188888   -1.230935   33.799321
C      24.469720   -2.477874   33.793053
C      23.027467   -2.477771   33.797208
C      22.307788   -3.725715   33.788483
C      20.867958   -3.725947   33.800101
C      14.384940   -7.465140   33.809159
C      15.825398   -7.466096   33.796407
C      16.545931   -6.219629   33.804799
C      17.987101   -6.220360   33.789057
C      18.708461   -4.975439   33.804615
C      20.147411   -4.974025   33.787234
C      15.825721    0.019378   36.083023
H      16.873139    0.052241   36.464550
H      15.331062   -0.906044   36.463621
H      15.275480    0.911739   36.463082
